* XREF SPICE	Fri Feb  2 03:36:02 2018	inverter
* icv_netlist Version RHEL64 K-2015.12-3.3052145 2015/12/17

* Top of hierarchy  cell=inverter
.subckt inverter VDD VIN VSS VOUT
M_MM1 VOUT VIN VSS VSS n12  l=1e-07 w=2.5e-07 nf=1
M_MM0 VOUT VIN VDD VDD p12  l=1e-07 w=6.5e-07 nf=1
.ends inverter
